Circuit: * D:\Github\um3Supply\Hardware\Simulations\um3Supply.asc

Direct Newton iteration failed to find .op point.  (Use ".option noopiter" to skip.)
Starting Gmin stepping
Gmin = 10
vernier = 0.5
Gmin = 1.86414
vernier = 0.25
vernier = 0.125
vernier = 0.0625
vernier = 0.03125
Gmin = 1.98679
vernier = 0.015625
vernier = 0.0078125
Gmin = 1.95985
vernier = 0.0104167
vernier = 0.0138889
Gmin = 1.90294
vernier = 0.0185185
vernier = 0.0246913
Gmin = 1.81565
vernier = 0.0329218
Gmin = 1.68649
vernier = 0.0438957
vernier = 0.0585276
Gmin = 1.49042
vernier = 0.0780367
vernier = 0.104049
Gmin = 1.22473
vernier = 0.138732
vernier = 0.0693659
Gmin = 0.99743
vernier = 0.034683
vernier = 0.0173415
vernier = 0.00867074
vernier = 0.00433537
Gmin = 1.00925
vernier = 0.00216769
vernier = 0.00289025
Gmin = 1.00361
vernier = 0.00144512
vernier = 0.000722562
Gmin = 1.00271
vernier = 0.000963415
vernier = 0.000481708
Gmin = 0
Gmin stepping failed

Starting source stepping with srcstepmethod=0
Source Step = 3.0303%
Source Step = 33.3333%
Source Step = 63.6364%
Source Step = 93.9394%
Source stepping succeeded in finding the operating point.


Date: Sun Nov 10 12:43:44 2019
Total elapsed time: 1.946 seconds.

tnom = 27
temp = 27
method = modified trap
totiter = 15371
traniter = 10270
tranpoints = 3415
accept = 2706
rejected = 709
matrix size = 268
fillins = 509
solver = Normal
Thread vector: 13.1/9.5[5] 12.1/4.2[5] 6.1/4.0[5] 1.1/1.6[1]  2592/500
Matrix Compiler1: 36.08 KB object code size  17.9/10.2/[4.0]
Matrix Compiler2: 28.48 KB object code size  3.6/5.0/[1.5]

